REMARK  3 active torsions:
REMARK  status: ('A' for Active; 'I' for Inactive)
REMARK    1  A    between atoms: N_6  and  C_13 
REMARK    2  A    between atoms: C_12  and  C_14 
REMARK    3  A    between atoms: C_16  and  C_17 
ROOT
HETATM    1  O   UNK     0       7.746  -2.329   0.000  0.00  0.00    -0.287 OA
HETATM    2  O   UNK     0       3.790  -1.853   0.000  0.00  0.00    -0.184 OA
HETATM    3  O   UNK     0       4.825  -5.039   0.000  0.00  0.00    -0.186 OA
HETATM    4  C   UNK     0       5.730  -3.793   0.000  0.00  0.00     0.181 A 
HETATM    5  C   UNK     0       5.254  -2.329   0.000  0.00  0.00     0.199 A 
HETATM    6  C   UNK     0       7.270  -3.793   0.000  0.00  0.00     0.140 A 
HETATM    7  C   UNK     0       6.500  -1.424   0.000  0.00  0.00     0.209 A 
ENDROOT
BRANCH   7   8
HETATM    8  N   UNK     0       6.500   0.116   0.000  0.00  0.00    -0.201 N 
HETATM    9  N   UNK     0       7.746   1.022   0.000  0.00  0.00    -0.143 NA
HETATM   10  C   UNK     0       7.270   2.486   0.000  0.00  0.00     0.219 A 
HETATM   11  N   UNK     0       5.730   2.486   0.000  0.00  0.00    -0.222 NA
HETATM   12  C   UNK     0       5.254   1.022   0.000  0.00  0.00     0.256 A 
BRANCH  10  13
HETATM   13  C   UNK     0       8.175   3.732   0.000  0.00  0.00     0.237 C 
HETATM   14  O   UNK     0       9.707   3.571   0.000  0.00  0.00    -0.172 OA
HETATM   15  N   UNK     0       7.549   5.139   0.000  0.00  0.00    -0.068 NA
ENDBRANCH  10  13
ENDBRANCH   7   8
BRANCH   6  16
HETATM   16  C   UNK     0       8.175  -5.039   0.000  0.00  0.00     0.235 C 
HETATM   17  O   UNK     0       9.707  -4.878   0.000  0.00  0.00    -0.213 OA
ENDBRANCH   6  16
TORSDOF 3
