REMARK  3 active torsions:
REMARK  status: ('A' for Active; 'I' for Inactive)
REMARK    1  A    between atoms: N_5  and  C_11 
REMARK    2  A    between atoms: N_6  and  C_10 
REMARK    3  A    between atoms: C_13  and  C_14 
ROOT
HETATM    1  N   UNK     0       6.143  -4.582   0.000  0.00  0.00    -0.073 NA
HETATM    2  N   UNK     0       4.612  -4.421   0.000  0.00  0.00    -0.162 NA
HETATM    3  N   UNK     0       3.080  -4.260   0.000  0.00  0.00     0.068 N 
ENDROOT
BRANCH   1   4
HETATM    4  C   UNK     0       7.048  -3.336   0.000  0.00  0.00     0.124 A 
HETATM    5  C   UNK     0       6.573  -1.872   0.000  0.00  0.00     0.120 A 
HETATM    6  C   UNK     0       7.818  -0.966   0.000  0.00  0.00     0.149 A 
HETATM    7  O   UNK     0       9.064  -1.872   0.000  0.00  0.00    -0.295 OA
HETATM    8  C   UNK     0       8.588  -3.336   0.000  0.00  0.00     0.129 A 
BRANCH   6   9
HETATM    9  N   UNK     0       7.818   0.574   0.000  0.00  0.00    -0.272 N 
HETATM   10  C   UNK     0       9.152   1.344   0.000  0.00  0.00     0.137 A 
HETATM   11  C   UNK     0       9.152   2.884   0.000  0.00  0.00     0.023 A 
HETATM   12  C   UNK     0       7.818   3.654   0.000  0.00  0.00     0.210 A 
HETATM   13  C   UNK     0      10.486   3.654   0.000  0.00  0.00     0.032 C 
HETATM   14  O   UNK     0       7.818   5.194   0.000  0.00  0.00    -0.170 OA
HETATM   15  N   UNK     0       6.485   2.884   0.000  0.00  0.00    -0.179 NA
HETATM   16  C   UNK     0       6.485   1.344   0.000  0.00  0.00     0.285 A 
HETATM   17  O   UNK     0       5.151   0.574   0.000  0.00  0.00    -0.149 OA
ENDBRANCH   6   9
BRANCH   8  18
HETATM   18  C   UNK     0       9.493  -4.582   0.000  0.00  0.00     0.235 C 
HETATM   19  O   UNK     0      11.025  -4.421   0.000  0.00  0.00    -0.213 OA
ENDBRANCH   8  18
ENDBRANCH   1   4
TORSDOF 3
